Version 4
SHEET 1 1292 864
WIRE 368 -96 256 -96
WIRE 256 -48 256 -96
WIRE 368 -32 368 -96
WIRE 80 96 -144 96
WIRE 256 96 256 32
WIRE 256 96 80 96
WIRE 688 96 256 96
WIRE 688 128 688 96
WIRE 80 160 80 96
WIRE 256 160 256 96
WIRE -144 240 -144 96
WIRE 256 256 256 240
WIRE 464 256 256 256
WIRE 688 256 688 208
WIRE 864 256 688 256
WIRE 944 256 864 256
WIRE 80 272 80 240
WIRE 256 272 256 256
WIRE 864 272 864 256
WIRE 464 288 464 256
WIRE 16 320 -16 320
WIRE 400 320 320 320
WIRE -16 336 -16 320
WIRE 688 368 688 256
WIRE 864 400 864 352
WIRE -144 416 -144 320
WIRE -64 416 -144 416
WIRE 80 416 80 368
WIRE 160 416 80 416
WIRE 256 416 256 368
WIRE 256 416 160 416
WIRE 400 416 400 400
WIRE 464 416 464 352
WIRE 624 416 464 416
WIRE -16 432 -16 416
WIRE -144 464 -144 416
WIRE 160 464 160 416
WIRE -64 512 -64 416
WIRE -64 512 -80 512
WIRE 96 512 -64 512
WIRE 688 512 688 464
WIRE 400 544 400 496
WIRE -144 624 -144 560
WIRE 160 624 160 560
WIRE 160 624 -144 624
WIRE 256 624 160 624
WIRE 688 624 688 592
WIRE 688 624 256 624
WIRE 256 688 256 624
WIRE 256 848 256 768
FLAG 864 400 0
FLAG 256 848 0
FLAG 368 -32 0
FLAG 400 544 0
FLAG 944 256 Vout
FLAG -16 432 0
SYMBOL res 64 144 R0
SYMATTR InstName RC1
SYMATTR Value 20k
SYMBOL res 240 144 R0
SYMATTR InstName RC2
SYMATTR Value 20k
SYMBOL Res 672 496 R0
SYMATTR InstName RE
SYMATTR Value 88.5k
SYMBOL Res -160 224 R0
SYMATTR InstName RR
SYMATTR Value 18.6k
SYMBOL Res 672 112 R0
SYMATTR InstName RC3
SYMATTR Value 103k
SYMBOL npn 16 272 R0
SYMATTR InstName Q1
SYMBOL npn 624 368 R0
SYMATTR InstName Q5
SYMBOL npn 96 464 R0
SYMATTR InstName Q4
SYMBOL npn -80 464 M0
SYMATTR InstName Q3
SYMBOL npn 320 272 M0
SYMATTR InstName Q2
SYMBOL voltage 256 672 R0
SYMATTR InstName VEE1
SYMATTR Value -5
SYMBOL voltage 256 48 R180
WINDOW 0 24 96 Left 2
WINDOW 3 24 16 Left 2
SYMATTR InstName VCC1
SYMATTR Value 5
SYMBOL Res 848 256 R0
SYMATTR InstName RL
SYMATTR Value 50
SYMBOL voltage 400 400 R0
WINDOW 123 24 118 Left 2
WINDOW 39 24 140 Left 2
SYMATTR InstName Vin
SYMATTR Value 0
SYMATTR Value2 AC 1 0
SYMATTR SpiceLine Rser=50
SYMBOL Res -32 320 R0
SYMATTR InstName Rb1
SYMATTR Value 41.55k
SYMBOL Res 416 416 R180
WINDOW 0 36 76 Left 2
WINDOW 3 36 40 Left 2
SYMATTR InstName Rb2
SYMATTR Value 41.5k
SYMBOL cap 448 288 R0
SYMATTR InstName C1
SYMATTR Value 100p
TEXT 384 728 Left 2 !.tran 10ms
TEXT 392 768 Left 2 !.model npn_ideal_transistor NPN(Bf=100)
