Version 4
SHEET 1 2148 864
WIRE 368 -96 256 -96
WIRE 256 -48 256 -96
WIRE 368 -32 368 -96
WIRE 80 96 -144 96
WIRE 256 96 256 32
WIRE 256 96 80 96
WIRE 688 96 256 96
WIRE 1088 96 688 96
WIRE 1440 96 1088 96
WIRE 1792 96 1440 96
WIRE 688 128 688 96
WIRE 1088 128 1088 96
WIRE 1440 128 1440 96
WIRE 80 160 80 96
WIRE 256 160 256 96
WIRE 1792 208 1792 96
WIRE -144 240 -144 96
WIRE 256 256 256 240
WIRE 528 256 256 256
WIRE 688 256 688 208
WIRE 944 256 688 256
WIRE 1088 256 1088 208
WIRE 1312 256 1088 256
WIRE 1440 256 1440 208
WIRE 1728 256 1440 256
WIRE 1744 256 1728 256
WIRE 80 272 80 240
WIRE 256 272 256 256
WIRE 16 320 -16 320
WIRE 400 320 320 320
WIRE 1792 320 1792 304
WIRE 688 368 688 256
WIRE 1088 368 1088 256
WIRE 1440 368 1440 256
WIRE -144 416 -144 320
WIRE -64 416 -144 416
WIRE 80 416 80 368
WIRE 160 416 80 416
WIRE 256 416 256 368
WIRE 256 416 160 416
WIRE 400 416 400 320
WIRE 528 416 528 256
WIRE 624 416 528 416
WIRE 944 416 944 256
WIRE 1024 416 944 416
WIRE 1040 416 1024 416
WIRE 1312 416 1312 256
WIRE 1376 416 1312 416
WIRE 1392 416 1376 416
WIRE -16 432 -16 320
WIRE 1792 432 1792 400
WIRE 1888 432 1792 432
WIRE 2032 432 1952 432
WIRE 2080 432 2032 432
WIRE -144 464 -144 416
WIRE 160 464 160 416
WIRE 2032 464 2032 432
WIRE 688 480 688 464
WIRE 848 480 688 480
WIRE 1088 480 1088 464
WIRE 1248 480 1088 480
WIRE 1440 480 1440 464
WIRE 1600 480 1440 480
WIRE 1792 496 1792 432
WIRE -64 512 -64 416
WIRE -64 512 -80 512
WIRE 96 512 -64 512
WIRE 688 512 688 480
WIRE 848 512 848 480
WIRE 1088 512 1088 480
WIRE 1248 512 1248 480
WIRE 1440 512 1440 480
WIRE 1600 512 1600 480
WIRE 400 544 400 496
WIRE 2032 576 2032 544
WIRE -144 624 -144 560
WIRE 160 624 160 560
WIRE 160 624 -144 624
WIRE 256 624 160 624
WIRE 688 624 688 592
WIRE 688 624 256 624
WIRE 848 624 848 576
WIRE 848 624 688 624
WIRE 1088 624 1088 592
WIRE 1088 624 848 624
WIRE 1248 624 1248 576
WIRE 1248 624 1088 624
WIRE 1440 624 1440 592
WIRE 1440 624 1248 624
WIRE 1600 624 1600 576
WIRE 1600 624 1440 624
WIRE 1792 624 1792 576
WIRE 1792 624 1600 624
WIRE 256 688 256 624
WIRE 256 848 256 768
FLAG 256 848 0
FLAG 368 -32 0
FLAG 400 544 0
FLAG -16 432 0
FLAG 2032 576 0
FLAG 2080 432 Vout
SYMBOL res 64 144 R0
SYMATTR InstName RC1
SYMATTR Value 100k
SYMBOL res 240 144 R0
SYMATTR InstName RC2
SYMATTR Value 100k
SYMBOL Res 672 496 R0
SYMATTR InstName Re1
SYMATTR Value 86k
SYMBOL Res -160 224 R0
SYMATTR InstName RR
SYMATTR Value 93k
SYMBOL Res 672 112 R0
SYMATTR InstName RC3
SYMATTR Value 102.8k
SYMBOL npn 16 272 R0
SYMATTR InstName Q1
SYMBOL npn 624 368 R0
SYMATTR InstName Q5
SYMBOL npn 96 464 R0
SYMATTR InstName Q4
SYMBOL npn -80 464 M0
SYMATTR InstName Q3
SYMBOL npn 320 272 M0
SYMATTR InstName Q2
SYMBOL voltage 256 672 R0
SYMATTR InstName VEE1
SYMATTR Value -5
SYMBOL voltage 256 48 R180
WINDOW 0 24 96 Left 2
WINDOW 3 24 16 Left 2
SYMATTR InstName VCC1
SYMATTR Value 5
SYMBOL voltage 400 400 R0
WINDOW 123 24 118 Left 2
WINDOW 39 24 140 Left 2
SYMATTR Value2 AC 1 0
SYMATTR SpiceLine Rser=50
SYMATTR InstName Vin
SYMATTR Value 0
SYMBOL cap 832 512 R0
SYMATTR InstName Ce1
SYMATTR Value 1.5e-8
SYMBOL npn 1728 208 R0
SYMATTR InstName Q8
SYMBOL Res 1776 480 R0
SYMATTR InstName Re2
SYMATTR Value 206k
SYMBOL Res 2016 448 R0
SYMATTR InstName RL
SYMATTR Value 50
SYMBOL cap 1952 416 R90
WINDOW 0 0 32 VBottom 2
WINDOW 3 32 32 VTop 2
SYMATTR InstName C2
SYMATTR Value 8e-5
SYMBOL Res 1072 496 R0
SYMATTR InstName Re3
SYMATTR Value 141.9k
SYMBOL Res 1072 112 R0
SYMATTR InstName RC4
SYMATTR Value 169.62k
SYMBOL npn 1024 368 R0
SYMATTR InstName Q6
SYMBOL cap 1232 512 R0
SYMATTR InstName Ce2
SYMATTR Value 5.85e-5
SYMBOL Res 1776 304 R0
SYMATTR InstName Rq8
SYMATTR Value 206k
SYMBOL Res 1424 496 R0
SYMATTR InstName Re4
SYMATTR Value 15.609k
SYMBOL Res 1424 112 R0
SYMATTR InstName RC5
SYMATTR Value 18.6582k
SYMBOL npn 1376 368 R0
SYMATTR InstName Q7
SYMBOL cap 1584 512 R0
SYMATTR InstName Ce3
SYMATTR Value 5.85e-5
TEXT 384 728 Left 2 !.ac dec 200 0.0001 1000000000k
TEXT 392 768 Left 2 !.model npn_ideal_transistor NPN(Bf=100)
