Version 4
SHEET 1 1364 864
WIRE 368 -96 256 -96
WIRE 256 -48 256 -96
WIRE 368 -32 368 -96
WIRE 80 96 -144 96
WIRE 256 96 256 32
WIRE 256 96 80 96
WIRE 688 96 256 96
WIRE 1008 96 688 96
WIRE 688 128 688 96
WIRE 80 160 80 96
WIRE 256 160 256 96
WIRE 1008 208 1008 96
WIRE -144 240 -144 96
WIRE 256 256 256 240
WIRE 528 256 256 256
WIRE 592 256 576 256
WIRE 688 256 688 208
WIRE 688 256 656 256
WIRE 752 256 688 256
WIRE 864 256 816 256
WIRE 944 256 864 256
WIRE 80 272 80 240
WIRE 256 272 256 256
WIRE 864 272 864 256
WIRE 16 320 -16 320
WIRE 352 320 320 320
WIRE 400 320 352 320
WIRE 1008 352 1008 304
WIRE 1104 352 1008 352
WIRE 1248 352 1168 352
WIRE 1296 352 1248 352
WIRE 688 368 688 256
WIRE 1248 384 1248 352
WIRE 864 400 864 352
WIRE -144 416 -144 320
WIRE -64 416 -144 416
WIRE 80 416 80 368
WIRE 160 416 80 416
WIRE 256 416 256 368
WIRE 256 416 160 416
WIRE 288 416 256 416
WIRE 352 416 352 320
WIRE 400 416 400 320
WIRE 528 416 528 256
WIRE 576 416 576 256
WIRE 576 416 528 416
WIRE 624 416 576 416
WIRE -16 432 -16 320
WIRE -144 464 -144 416
WIRE 160 464 160 416
WIRE 688 480 688 464
WIRE 848 480 688 480
WIRE 1008 496 1008 352
WIRE 1248 496 1248 464
WIRE -64 512 -64 416
WIRE -64 512 -80 512
WIRE 96 512 -64 512
WIRE 688 512 688 480
WIRE 848 512 848 480
WIRE 400 544 400 496
WIRE -144 624 -144 560
WIRE 160 624 160 560
WIRE 160 624 -144 624
WIRE 256 624 160 624
WIRE 688 624 688 592
WIRE 688 624 256 624
WIRE 848 624 848 576
WIRE 848 624 688 624
WIRE 1008 624 1008 576
WIRE 1008 624 848 624
WIRE 256 688 256 624
WIRE 256 848 256 768
FLAG 864 400 0
FLAG 256 848 0
FLAG 368 -32 0
FLAG 400 544 0
FLAG -16 432 0
FLAG 1248 496 0
FLAG 1296 352 Vout
SYMBOL res 64 144 R0
SYMATTR InstName RC1
SYMATTR Value 100k
SYMBOL res 240 144 R0
SYMATTR InstName RC2
SYMATTR Value 100k
SYMBOL Res 672 496 R0
SYMATTR InstName Re1
SYMATTR Value 88.3k
SYMBOL Res -160 224 R0
SYMATTR InstName RR
SYMATTR Value 93k
SYMBOL Res 672 112 R0
SYMATTR InstName RC3
SYMATTR Value 103k
SYMBOL npn 16 272 R0
SYMATTR InstName Q1
SYMBOL npn 624 368 R0
SYMATTR InstName Q5
SYMBOL npn 96 464 R0
SYMATTR InstName Q4
SYMBOL npn -80 464 M0
SYMATTR InstName Q3
SYMBOL npn 320 272 M0
SYMATTR InstName Q2
SYMBOL voltage 256 672 R0
SYMATTR InstName VEE1
SYMATTR Value -5
SYMBOL voltage 256 48 R180
WINDOW 0 24 96 Left 2
WINDOW 3 24 16 Left 2
SYMATTR InstName VCC1
SYMATTR Value 5
SYMBOL Res 848 256 R0
SYMATTR InstName Rm
SYMATTR Value 103k
SYMBOL voltage 400 400 R0
WINDOW 123 24 118 Left 2
WINDOW 39 24 140 Left 2
SYMATTR Value2 AC 1 0
SYMATTR SpiceLine Rser=50
SYMATTR InstName Vin
SYMATTR Value 0
SYMBOL cap 832 512 R0
SYMATTR InstName Ce1
SYMATTR Value 5.9e-8
SYMBOL cap 816 240 R90
WINDOW 0 0 32 VBottom 2
WINDOW 3 32 32 VTop 2
SYMATTR InstName Cc3
SYMATTR Value 2.05e-8
SYMBOL npn 944 208 R0
SYMATTR InstName Q6
SYMBOL Res 992 480 R0
SYMATTR InstName Re2
SYMATTR Value 200k
SYMBOL Res 1232 368 R0
SYMATTR InstName RL
SYMATTR Value 50
SYMBOL cap 1168 336 R90
WINDOW 0 0 32 VBottom 2
WINDOW 3 32 32 VTop 2
SYMATTR InstName C2
SYMATTR Value 8e-4
SYMBOL cap 352 400 R90
WINDOW 0 0 32 VBottom 2
WINDOW 3 32 32 VTop 2
SYMATTR InstName Cq2
SYMATTR Value 3.8e-10
SYMBOL cap 656 240 R90
WINDOW 0 0 32 VBottom 2
WINDOW 3 32 32 VTop 2
SYMATTR InstName Cq5
SYMATTR Value 0.59e-14
TEXT 384 728 Left 2 !.ac dec 200 0.0001 1000000000k
TEXT 392 768 Left 2 !.model npn_ideal_transistor NPN(Bf=100)
