Version 4
SHEET 1 1156 784
WIRE 160 -176 48 -176
WIRE 48 -128 48 -176
WIRE 160 -112 160 -176
WIRE -128 16 -352 16
WIRE 48 16 48 -48
WIRE 48 16 -128 16
WIRE 480 16 48 16
WIRE 800 16 480 16
WIRE 480 48 480 16
WIRE -128 80 -128 16
WIRE 48 80 48 16
WIRE 800 128 800 16
WIRE -352 160 -352 16
WIRE 48 176 48 160
WIRE 320 176 48 176
WIRE 480 176 480 128
WIRE 544 176 480 176
WIRE 656 176 608 176
WIRE 736 176 656 176
WIRE -128 192 -128 160
WIRE 48 192 48 176
WIRE 656 192 656 176
WIRE -192 240 -224 240
WIRE 192 240 112 240
WIRE 800 272 800 224
WIRE 896 272 800 272
WIRE 1040 272 960 272
WIRE 1088 272 1040 272
WIRE 480 288 480 176
WIRE 1040 304 1040 272
WIRE 656 320 656 272
WIRE -352 336 -352 240
WIRE -272 336 -352 336
WIRE -128 336 -128 288
WIRE -48 336 -128 336
WIRE 48 336 48 288
WIRE 48 336 -48 336
WIRE 192 336 192 240
WIRE 320 336 320 176
WIRE 416 336 320 336
WIRE -224 352 -224 240
WIRE -352 384 -352 336
WIRE -48 384 -48 336
WIRE 480 400 480 384
WIRE 640 400 480 400
WIRE 800 416 800 272
WIRE 1040 416 1040 384
WIRE -272 432 -272 336
WIRE -272 432 -288 432
WIRE -112 432 -272 432
WIRE 480 432 480 400
WIRE 640 432 640 400
WIRE 192 464 192 416
WIRE -352 544 -352 480
WIRE -48 544 -48 480
WIRE -48 544 -352 544
WIRE 48 544 -48 544
WIRE 480 544 480 512
WIRE 480 544 48 544
WIRE 640 544 640 496
WIRE 640 544 480 544
WIRE 800 544 800 496
WIRE 800 544 640 544
WIRE 48 608 48 544
WIRE 48 768 48 688
FLAG 656 320 0
FLAG 48 768 0
FLAG 160 -112 0
FLAG 192 464 0
FLAG -224 352 0
FLAG 1040 416 0
FLAG 1088 272 Vout
SYMBOL res -144 64 R0
SYMATTR InstName RC1
SYMATTR Value 100k
SYMBOL res 32 64 R0
SYMATTR InstName RC2
SYMATTR Value 100k
SYMBOL Res 464 416 R0
SYMATTR InstName Re1
SYMATTR Value 88.3k
SYMBOL Res -368 144 R0
SYMATTR InstName RR1
SYMATTR Value 93k
SYMBOL Res 464 32 R0
SYMATTR InstName RC3
SYMATTR Value 103k
SYMBOL npn -192 192 R0
SYMATTR InstName Q1
SYMBOL npn 416 288 R0
SYMATTR InstName Q2
SYMBOL npn -112 384 R0
SYMATTR InstName Q3
SYMBOL npn -288 384 M0
SYMATTR InstName Q4
SYMBOL npn 112 192 M0
SYMATTR InstName Q5
SYMBOL voltage 48 592 R0
SYMATTR InstName VEE1
SYMATTR Value -5
SYMBOL voltage 48 -32 R180
WINDOW 0 24 96 Left 2
WINDOW 3 24 16 Left 2
SYMATTR InstName VCC1
SYMATTR Value 5
SYMBOL Res 640 176 R0
SYMATTR InstName Rm1
SYMATTR Value 10300k
SYMBOL voltage 192 320 R0
WINDOW 123 24 118 Left 2
WINDOW 39 24 140 Left 2
SYMATTR Value2 AC 1 0
SYMATTR SpiceLine Rser=50
SYMATTR InstName Vin1
SYMATTR Value 0
SYMBOL cap 624 432 R0
SYMATTR InstName Ce1
SYMATTR Value 5.9e-8
SYMBOL cap 608 160 R90
WINDOW 0 0 32 VBottom 2
WINDOW 3 32 32 VTop 2
SYMATTR InstName Cc1
SYMATTR Value 2.05e-8
SYMBOL npn 736 128 R0
SYMATTR InstName Q6
SYMBOL Res 784 400 R0
SYMATTR InstName Re2
SYMATTR Value 200k
SYMBOL Res 1024 288 R0
SYMATTR InstName RL1
SYMATTR Value 50
SYMBOL cap 960 256 R90
WINDOW 0 0 32 VBottom 2
WINDOW 3 32 32 VTop 2
SYMATTR InstName C1
SYMATTR Value 2.05e-4
TEXT 176 648 Left 2 !.tran 10ms
TEXT 184 688 Left 2 !.model npn_ideal_transistor NPN(Bf=100)
