Version 4
SHEET 1 1460 848
WIRE -480 -288 -592 -288
WIRE -592 -240 -592 -288
WIRE -480 -224 -480 -288
WIRE -768 -96 -992 -96
WIRE -592 -96 -592 -160
WIRE -592 -96 -768 -96
WIRE -160 -96 -592 -96
WIRE 240 -96 -160 -96
WIRE 464 -96 240 -96
WIRE 592 -96 464 -96
WIRE 816 -96 592 -96
WIRE 944 -96 816 -96
WIRE -160 -64 -160 -96
WIRE 240 -64 240 -96
WIRE 592 -64 592 -96
WIRE 464 -48 464 -96
WIRE 816 -48 816 -96
WIRE -768 -32 -768 -96
WIRE -592 -32 -592 -96
WIRE 944 16 944 -96
WIRE -992 48 -992 -96
WIRE -592 64 -592 48
WIRE -320 64 -592 64
WIRE -160 64 -160 16
WIRE 96 64 -160 64
WIRE 240 64 240 16
WIRE 464 64 464 16
WIRE 464 64 240 64
WIRE 592 64 592 16
WIRE 816 64 816 16
WIRE 816 64 592 64
WIRE 880 64 816 64
WIRE 896 64 880 64
WIRE -768 80 -768 48
WIRE -592 80 -592 64
WIRE -832 128 -864 128
WIRE -448 128 -528 128
WIRE 944 128 944 112
WIRE -160 176 -160 64
WIRE 240 176 240 64
WIRE 592 176 592 64
WIRE -992 224 -992 128
WIRE -912 224 -992 224
WIRE -768 224 -768 176
WIRE -688 224 -768 224
WIRE -592 224 -592 176
WIRE -592 224 -688 224
WIRE -320 224 -320 64
WIRE -224 224 -320 224
WIRE 96 224 96 64
WIRE 176 224 96 224
WIRE 192 224 176 224
WIRE 464 224 464 64
WIRE 528 224 464 224
WIRE 544 224 528 224
WIRE 944 240 944 208
WIRE 1040 240 944 240
WIRE 1184 240 1104 240
WIRE 1232 240 1184 240
WIRE -992 272 -992 224
WIRE -688 272 -688 224
WIRE -448 272 -448 128
WIRE 1184 272 1184 240
WIRE -864 288 -864 128
WIRE -160 288 -160 272
WIRE 0 288 -160 288
WIRE 240 288 240 272
WIRE 400 288 240 288
WIRE 592 288 592 272
WIRE 752 288 592 288
WIRE 944 304 944 240
WIRE -912 320 -912 224
WIRE -912 320 -928 320
WIRE -752 320 -912 320
WIRE -160 320 -160 288
WIRE 0 320 0 288
WIRE 240 320 240 288
WIRE 400 320 400 288
WIRE 592 320 592 288
WIRE 752 320 752 288
WIRE 1184 384 1184 352
WIRE -448 400 -448 352
WIRE -992 432 -992 368
WIRE -688 432 -688 368
WIRE -688 432 -992 432
WIRE -592 432 -688 432
WIRE -160 432 -160 400
WIRE -160 432 -592 432
WIRE 0 432 0 384
WIRE 0 432 -160 432
WIRE 240 432 240 400
WIRE 240 432 0 432
WIRE 400 432 400 384
WIRE 400 432 240 432
WIRE 592 432 592 400
WIRE 592 432 400 432
WIRE 752 432 752 384
WIRE 752 432 592 432
WIRE 944 432 944 384
WIRE 944 432 752 432
WIRE -592 496 -592 432
WIRE -592 656 -592 576
FLAG -592 656 0
FLAG -480 -224 0
FLAG -448 400 0
FLAG 1184 384 0
FLAG 1232 240 Vout
FLAG -864 288 0
FLAG -768 48 VQ1C
FLAG -592 64 VQ2C
FLAG -688 224 VQM2C
FLAG -992 224 VQM1C
FLAG -160 64 VQ3C
FLAG 240 64 VQ4C
FLAG 592 64 VQ5C
FLAG 944 128 VQ6E
SYMBOL res -784 -48 R0
SYMATTR InstName RC1
SYMATTR Value 100k
SYMBOL res -608 -48 R0
SYMATTR InstName RC2
SYMATTR Value 100k
SYMBOL Res -176 304 R0
SYMATTR InstName Re1
SYMATTR Value 172k
SYMBOL Res -1008 32 R0
SYMATTR InstName RR1
SYMATTR Value 93k
SYMBOL Res -176 -80 R0
SYMATTR InstName RC3
SYMATTR Value 205.6k
SYMBOL npn -832 80 R0
SYMATTR InstName Q1
SYMBOL npn -224 176 R0
SYMATTR InstName Q3
SYMBOL npn -752 272 R0
SYMATTR InstName QM2
SYMBOL npn -928 272 M0
SYMATTR InstName QM1
SYMBOL npn -528 80 M0
SYMATTR InstName Q2
SYMBOL voltage -592 480 R0
SYMATTR InstName VEE1
SYMATTR Value -5
SYMBOL voltage -592 -144 R180
WINDOW 0 24 96 Left 2
WINDOW 3 24 16 Left 2
SYMATTR InstName VCC1
SYMATTR Value 5
SYMBOL voltage -448 256 R0
WINDOW 123 24 118 Left 2
WINDOW 39 24 140 Left 2
SYMATTR Value2 AC 1 0
SYMATTR SpiceLine Rs=50
SYMATTR InstName Vx1
SYMATTR Value 0
SYMBOL cap -16 320 R0
SYMATTR InstName Ce1
SYMATTR Value 0.7e-8
SYMBOL npn 880 16 R0
SYMATTR InstName Q6
SYMBOL Res 928 288 R0
SYMATTR InstName Re2
SYMATTR Value 206k
SYMBOL Res 1168 256 R0
SYMATTR InstName RL1
SYMATTR Value 50
SYMBOL cap 1104 224 R90
WINDOW 0 0 32 VBottom 2
WINDOW 3 32 32 VTop 2
SYMATTR InstName C1
SYMATTR Value 8e-5
SYMBOL Res 224 304 R0
SYMATTR InstName Re3
SYMATTR Value 141.9k
SYMBOL Res 224 -80 R0
SYMATTR InstName RC4
SYMATTR Value 169.62k
SYMBOL npn 176 176 R0
SYMATTR InstName Q4
SYMBOL cap 384 320 R0
SYMATTR InstName Ce2
SYMATTR Value 0.5e-6
SYMBOL Res 928 112 R0
SYMATTR InstName Rq1
SYMATTR Value 203k
SYMBOL Res 576 304 R0
SYMATTR InstName Re4
SYMATTR Value 25.4232k
SYMBOL Res 576 -80 R0
SYMATTR InstName RC5
SYMATTR Value 30.396k
SYMBOL npn 528 176 R0
SYMATTR InstName Q5
SYMBOL cap 736 320 R0
SYMATTR InstName Ce3
SYMATTR Value 1e-5
SYMBOL cap 800 -48 R0
SYMATTR InstName C2
SYMATTR Value 5.2e-12
SYMBOL cap 480 16 R180
WINDOW 0 24 56 Left 2
WINDOW 3 24 8 Left 2
SYMATTR InstName C3
SYMATTR Value 0.7e-11
TEXT 528 672 Left 2 !.op 10ns
TEXT 536 712 Left 2 !.model npn_ideal_transistor NPN(Bf=100)
