Version 4
SHEET 1 1412 832
WIRE -48 -128 -160 -128
WIRE -160 -80 -160 -128
WIRE -48 -64 -48 -128
WIRE -336 64 -560 64
WIRE -160 64 -160 0
WIRE -160 64 -336 64
WIRE 272 64 -160 64
WIRE 672 64 272 64
WIRE 1056 64 672 64
WIRE 272 96 272 64
WIRE 672 96 672 64
WIRE -336 128 -336 64
WIRE -160 128 -160 64
WIRE 1056 176 1056 64
WIRE -560 208 -560 64
WIRE -160 224 -160 208
WIRE 112 224 -160 224
WIRE 272 224 272 176
WIRE 528 224 272 224
WIRE 672 224 672 176
WIRE 992 224 672 224
WIRE -336 240 -336 208
WIRE -160 240 -160 224
WIRE -400 288 -432 288
WIRE -16 288 -96 288
WIRE 1056 320 1056 272
WIRE 1152 320 1056 320
WIRE 1296 320 1216 320
WIRE 1344 320 1296 320
WIRE 272 336 272 224
WIRE 672 336 672 224
WIRE 1296 352 1296 320
WIRE -560 384 -560 288
WIRE -480 384 -560 384
WIRE -336 384 -336 336
WIRE -256 384 -336 384
WIRE -160 384 -160 336
WIRE -160 384 -256 384
WIRE -16 384 -16 288
WIRE 112 384 112 224
WIRE 208 384 112 384
WIRE 528 384 528 224
WIRE 608 384 528 384
WIRE 624 384 608 384
WIRE -432 400 -432 288
WIRE -560 432 -560 384
WIRE -256 432 -256 384
WIRE 272 448 272 432
WIRE 432 448 272 448
WIRE 672 448 672 432
WIRE 832 448 672 448
WIRE 1056 464 1056 320
WIRE 1296 464 1296 432
WIRE -480 480 -480 384
WIRE -480 480 -496 480
WIRE -320 480 -480 480
WIRE 272 480 272 448
WIRE 432 480 432 448
WIRE 672 480 672 448
WIRE 832 480 832 448
WIRE -16 512 -16 464
WIRE -560 592 -560 528
WIRE -256 592 -256 528
WIRE -256 592 -560 592
WIRE -160 592 -256 592
WIRE 272 592 272 560
WIRE 272 592 -160 592
WIRE 432 592 432 544
WIRE 432 592 272 592
WIRE 672 592 672 560
WIRE 672 592 432 592
WIRE 832 592 832 544
WIRE 832 592 672 592
WIRE 1056 592 1056 544
WIRE 1056 592 832 592
WIRE -160 656 -160 592
WIRE -160 816 -160 736
FLAG -160 816 0
FLAG -48 -64 0
FLAG -16 512 0
FLAG -432 400 0
FLAG 1296 464 0
FLAG 1344 320 Vout
SYMBOL res -352 112 R0
SYMATTR InstName RC1
SYMATTR Value 100k
SYMBOL res -176 112 R0
SYMATTR InstName RC2
SYMATTR Value 100k
SYMBOL Res 256 464 R0
SYMATTR InstName Re1
SYMATTR Value 86k
SYMBOL Res -576 192 R0
SYMATTR InstName RR1
SYMATTR Value 93k
SYMBOL Res 256 80 R0
SYMATTR InstName RC3
SYMATTR Value 102.8k
SYMBOL npn -400 240 R0
SYMATTR InstName Q1
SYMBOL npn 208 336 R0
SYMATTR InstName Q2
SYMBOL npn -320 432 R0
SYMATTR InstName Q3
SYMBOL npn -496 432 M0
SYMATTR InstName Q4
SYMBOL npn -96 240 M0
SYMATTR InstName Q5
SYMBOL voltage -160 640 R0
SYMATTR InstName VEE1
SYMATTR Value -5
SYMBOL voltage -160 16 R180
WINDOW 0 24 96 Left 2
WINDOW 3 24 16 Left 2
SYMATTR InstName VCC1
SYMATTR Value 5
SYMBOL voltage -16 368 R0
WINDOW 123 24 118 Left 2
WINDOW 39 24 140 Left 2
SYMATTR Value2 AC 1 0
SYMATTR SpiceLine Rser=50
SYMATTR InstName Vin1
SYMATTR Value 0
SYMBOL cap 416 480 R0
SYMATTR InstName Ce1
SYMATTR Value 5.9e-8
SYMBOL npn 992 176 R0
SYMATTR InstName Q6
SYMBOL Res 1040 448 R0
SYMATTR InstName Re2
SYMATTR Value 103k
SYMBOL Res 1280 336 R0
SYMATTR InstName RL1
SYMATTR Value 50
SYMBOL cap 1216 304 R90
WINDOW 0 0 32 VBottom 2
WINDOW 3 32 32 VTop 2
SYMATTR InstName C1
SYMATTR Value 8e-5
SYMBOL Res 656 464 R0
SYMATTR InstName Re3
SYMATTR Value 14.19k
SYMBOL Res 656 80 R0
SYMATTR InstName RC4
SYMATTR Value 16.9k
SYMBOL npn 608 336 R0
SYMATTR InstName Q7
SYMBOL cap 816 480 R0
SYMATTR InstName Ce2
SYMATTR Value 5.9e-8
TEXT -32 696 Left 2 !.tran 10ms
TEXT -24 736 Left 2 !.model npn_ideal_transistor NPN(Bf=100)
