Version 4
SHEET 1 1892 832
WIRE 112 -432 0 -432
WIRE 0 -384 0 -432
WIRE 112 -368 112 -432
WIRE -176 -240 -400 -240
WIRE 0 -240 0 -304
WIRE 0 -240 -176 -240
WIRE 432 -240 0 -240
WIRE 832 -240 432 -240
WIRE 1056 -240 832 -240
WIRE 1184 -240 1056 -240
WIRE 1408 -240 1184 -240
WIRE 1536 -240 1408 -240
WIRE 432 -208 432 -240
WIRE 832 -208 832 -240
WIRE 1184 -208 1184 -240
WIRE 1056 -192 1056 -240
WIRE 1408 -192 1408 -240
WIRE -176 -176 -176 -240
WIRE 0 -176 0 -240
WIRE 1536 -128 1536 -240
WIRE -400 -96 -400 -240
WIRE 0 -80 0 -96
WIRE 272 -80 0 -80
WIRE 432 -80 432 -128
WIRE 688 -80 432 -80
WIRE 832 -80 832 -128
WIRE 1056 -80 1056 -128
WIRE 1056 -80 832 -80
WIRE 1184 -80 1184 -128
WIRE 1408 -80 1408 -128
WIRE 1408 -80 1184 -80
WIRE 1472 -80 1408 -80
WIRE 1488 -80 1472 -80
WIRE -176 -64 -176 -96
WIRE 0 -64 0 -80
WIRE -240 -16 -272 -16
WIRE 144 -16 64 -16
WIRE 1536 -16 1536 -32
WIRE 432 32 432 -80
WIRE 832 32 832 -80
WIRE 1184 32 1184 -80
WIRE -400 80 -400 -16
WIRE -320 80 -400 80
WIRE -176 80 -176 32
WIRE -96 80 -176 80
WIRE 0 80 0 32
WIRE 0 80 -96 80
WIRE 272 80 272 -80
WIRE 368 80 272 80
WIRE 688 80 688 -80
WIRE 768 80 688 80
WIRE 784 80 768 80
WIRE 1056 80 1056 -80
WIRE 1120 80 1056 80
WIRE 1136 80 1120 80
WIRE 1536 96 1536 64
WIRE 1632 96 1536 96
WIRE 1776 96 1696 96
WIRE 1824 96 1776 96
WIRE -400 128 -400 80
WIRE -96 128 -96 80
WIRE 144 128 144 -16
WIRE 1776 128 1776 96
WIRE -272 144 -272 -16
WIRE 432 144 432 128
WIRE 592 144 432 144
WIRE 832 144 832 128
WIRE 992 144 832 144
WIRE 1184 144 1184 128
WIRE 1344 144 1184 144
WIRE 1536 160 1536 96
WIRE -320 176 -320 80
WIRE -320 176 -336 176
WIRE -160 176 -320 176
WIRE 432 176 432 144
WIRE 592 176 592 144
WIRE 832 176 832 144
WIRE 992 176 992 144
WIRE 1184 176 1184 144
WIRE 1344 176 1344 144
WIRE 1776 240 1776 208
WIRE 144 256 144 208
WIRE -400 288 -400 224
WIRE -96 288 -96 224
WIRE -96 288 -400 288
WIRE 0 288 -96 288
WIRE 432 288 432 256
WIRE 432 288 0 288
WIRE 592 288 592 240
WIRE 592 288 432 288
WIRE 832 288 832 256
WIRE 832 288 592 288
WIRE 992 288 992 240
WIRE 992 288 832 288
WIRE 1184 288 1184 256
WIRE 1184 288 992 288
WIRE 1344 288 1344 240
WIRE 1344 288 1184 288
WIRE 1536 288 1536 240
WIRE 1536 288 1344 288
WIRE 0 352 0 288
WIRE 0 512 0 432
FLAG 0 512 0
FLAG 112 -368 0
FLAG 144 256 0
FLAG 1776 240 0
FLAG 1824 96 Vout
FLAG -272 144 0
SYMBOL res -192 -192 R0
SYMATTR InstName RC1
SYMATTR Value 100k
SYMBOL res -16 -192 R0
SYMATTR InstName RC2
SYMATTR Value 100k
SYMBOL Res 416 160 R0
SYMATTR InstName Re1
SYMATTR Value 172k
SYMBOL Res -416 -112 R0
SYMATTR InstName RR1
SYMATTR Value 93k
SYMBOL Res 416 -224 R0
SYMATTR InstName RC3
SYMATTR Value 205.6k
SYMBOL npn -240 -64 R0
SYMATTR InstName Q1
SYMBOL npn 368 32 R0
SYMATTR InstName Q2
SYMBOL npn -160 128 R0
SYMATTR InstName QM1
SYMBOL npn -336 128 M0
SYMATTR InstName QM2
SYMBOL npn 64 -64 M0
SYMATTR InstName Q3
SYMBOL voltage 0 336 R0
SYMATTR InstName VEE1
SYMATTR Value -5
SYMBOL voltage 0 -288 R180
WINDOW 0 24 96 Left 2
WINDOW 3 24 16 Left 2
SYMATTR InstName VCC1
SYMATTR Value 5
SYMBOL voltage 144 112 R0
WINDOW 123 24 118 Left 2
WINDOW 39 24 140 Left 2
SYMATTR Value2 AC 1 0
SYMATTR InstName Vx1
SYMATTR Value 0
SYMBOL cap 576 176 R0
SYMATTR InstName Ce1
SYMATTR Value 0.7e-8
SYMBOL npn 1472 -128 R0
SYMATTR InstName Q4
SYMBOL Res 1520 144 R0
SYMATTR InstName Re2
SYMATTR Value 206k
SYMBOL Res 1760 112 R0
SYMATTR InstName RL1
SYMATTR Value 50
SYMBOL cap 1696 80 R90
WINDOW 0 0 32 VBottom 2
WINDOW 3 32 32 VTop 2
SYMATTR InstName C1
SYMATTR Value 8e-5
SYMBOL Res 816 160 R0
SYMATTR InstName Re3
SYMATTR Value 141.9k
SYMBOL Res 816 -224 R0
SYMATTR InstName RC4
SYMATTR Value 169.62k
SYMBOL npn 768 32 R0
SYMATTR InstName Q5
SYMBOL cap 976 176 R0
SYMATTR InstName Ce2
SYMATTR Value 0.5e-6
SYMBOL Res 1520 -32 R0
SYMATTR InstName Rq1
SYMATTR Value 203k
SYMBOL Res 1168 160 R0
SYMATTR InstName Re4
SYMATTR Value 25.4232k
SYMBOL Res 1168 -224 R0
SYMATTR InstName RC5
SYMATTR Value 30.396k
SYMBOL npn 1120 32 R0
SYMATTR InstName Q6
SYMBOL cap 1328 176 R0
SYMATTR InstName Ce3
SYMATTR Value 1e-5
SYMBOL cap 1392 -192 R0
SYMATTR InstName C2
SYMATTR Value 5.2e-12
SYMBOL cap 1072 -128 R180
WINDOW 0 24 56 Left 2
WINDOW 3 24 8 Left 2
SYMATTR InstName C3
SYMATTR Value 0.7e-11
TEXT 1352 648 Left 2 !.ac dec 200 80 80000k
TEXT 1360 688 Left 2 !.model npn_ideal_transistor NPN(Bf=100)
