Version 4
SHEET 1 1076 832
WIRE 432 -128 320 -128
WIRE 320 -80 320 -128
WIRE 432 -64 432 -128
WIRE 144 64 -80 64
WIRE 320 64 320 0
WIRE 320 64 144 64
WIRE 752 64 320 64
WIRE 752 96 752 64
WIRE 144 128 144 64
WIRE 320 128 320 64
WIRE -80 208 -80 64
WIRE 320 224 320 208
WIRE 528 224 320 224
WIRE 752 224 752 176
WIRE 928 224 752 224
WIRE 1008 224 928 224
WIRE 144 240 144 208
WIRE 320 240 320 224
WIRE 928 240 928 224
WIRE 80 288 48 288
WIRE 464 288 384 288
WIRE 48 304 48 288
WIRE 752 336 752 224
WIRE 928 368 928 320
WIRE -80 384 -80 288
WIRE 0 384 -80 384
WIRE 144 384 144 336
WIRE 224 384 144 384
WIRE 320 384 320 336
WIRE 320 384 224 384
WIRE 464 384 464 368
WIRE 528 384 528 224
WIRE 688 384 528 384
WIRE 48 400 48 384
WIRE -80 432 -80 384
WIRE 224 432 224 384
WIRE 0 480 0 384
WIRE 0 480 -16 480
WIRE 160 480 0 480
WIRE 752 480 752 432
WIRE 464 512 464 464
WIRE -80 592 -80 528
WIRE 224 592 224 528
WIRE 224 592 -80 592
WIRE 320 592 224 592
WIRE 752 592 752 560
WIRE 752 592 320 592
WIRE 320 656 320 592
WIRE 320 816 320 736
FLAG 928 368 0
FLAG 320 816 0
FLAG 432 -64 0
FLAG 464 512 0
FLAG 1008 224 Vout
FLAG 48 400 0
SYMBOL res 128 112 R0
SYMATTR InstName RC1
SYMATTR Value 20k
SYMBOL res 304 112 R0
SYMATTR InstName RC2
SYMATTR Value 20k
SYMBOL Res 736 464 R0
SYMATTR InstName RE1
SYMATTR Value 88.5k
SYMBOL Res -96 192 R0
SYMATTR InstName RR1
SYMATTR Value 18.6k
SYMBOL Res 736 80 R0
SYMATTR InstName RC3
SYMATTR Value 103k
SYMBOL npn 80 240 R0
SYMATTR InstName Q1
SYMBOL npn 688 336 R0
SYMATTR InstName Q2
SYMBOL npn 160 432 R0
SYMATTR InstName Q3
SYMBOL npn -16 432 M0
SYMATTR InstName Q4
SYMBOL npn 384 240 M0
SYMATTR InstName Q5
SYMBOL voltage 320 640 R0
SYMATTR InstName VEE1
SYMATTR Value -5
SYMBOL voltage 320 16 R180
WINDOW 0 24 96 Left 2
WINDOW 3 24 16 Left 2
SYMATTR InstName VCC1
SYMATTR Value 5
SYMBOL Res 912 224 R0
SYMATTR InstName RL1
SYMATTR Value 50
SYMBOL Res 32 288 R0
SYMATTR InstName Rb1
SYMATTR Value 41.55k
SYMBOL Res 480 384 R180
WINDOW 0 36 76 Left 2
WINDOW 3 36 40 Left 2
SYMATTR InstName Rb2
SYMATTR Value 41.5k
SYMBOL Voltage 464 368 R0
SYMATTR InstName Vx
SYMATTR Value 0
SYMATTR Value2 AC 1
SYMATTR SpiceLine Rser=50
TEXT 448 696 Left 2 !.ac dec 200 0.0001 1000000000k
TEXT 456 736 Left 2 !.model npn_ideal_transistor NPN(Bf=100)
