Version 4
SHEET 1 1076 832
WIRE 336 -128 224 -128
WIRE 224 -80 224 -128
WIRE 336 -64 336 -128
WIRE 48 64 -176 64
WIRE 224 64 224 0
WIRE 224 64 48 64
WIRE 656 64 224 64
WIRE 656 96 656 64
WIRE 48 128 48 64
WIRE 224 128 224 64
WIRE -176 208 -176 64
WIRE 224 224 224 208
WIRE 432 224 224 224
WIRE 656 224 656 176
WIRE 832 224 656 224
WIRE 912 224 832 224
WIRE 48 240 48 208
WIRE 224 240 224 224
WIRE 832 240 832 224
WIRE -16 288 -48 288
WIRE 368 288 288 288
WIRE 656 336 656 224
WIRE 832 368 832 320
WIRE -176 384 -176 288
WIRE -96 384 -176 384
WIRE 48 384 48 336
WIRE 128 384 48 384
WIRE 224 384 224 336
WIRE 224 384 128 384
WIRE 368 384 368 288
WIRE 432 384 432 224
WIRE 592 384 432 384
WIRE -48 400 -48 288
WIRE -176 432 -176 384
WIRE 128 432 128 384
WIRE -96 480 -96 384
WIRE -96 480 -112 480
WIRE 64 480 -96 480
WIRE 656 480 656 432
WIRE 368 512 368 464
WIRE -176 592 -176 528
WIRE 128 592 128 528
WIRE 128 592 -176 592
WIRE 224 592 128 592
WIRE 656 592 656 560
WIRE 656 592 224 592
WIRE 224 656 224 592
WIRE 224 816 224 736
FLAG 832 368 0
FLAG 224 816 0
FLAG 336 -64 0
FLAG 368 512 0
FLAG 912 224 Vout
FLAG -48 400 0
SYMBOL res 32 112 R0
SYMATTR InstName RC1
SYMATTR Value 100k
SYMBOL res 208 112 R0
SYMATTR InstName RC2
SYMATTR Value 100k
SYMBOL Res 640 464 R0
SYMATTR InstName RE1
SYMATTR Value 88.5k
SYMBOL Res -192 192 R0
SYMATTR InstName RR
SYMATTR Value 93k
SYMBOL Res 640 80 R0
SYMATTR InstName RC3
SYMATTR Value 103k
SYMBOL npn -16 240 R0
SYMATTR InstName Q1
SYMBOL npn 592 336 R0
SYMATTR InstName Q5
SYMBOL npn 64 432 R0
SYMATTR InstName Q4
SYMBOL npn -112 432 M0
SYMATTR InstName Q3
SYMBOL npn 288 240 M0
SYMATTR InstName Q2
SYMBOL voltage 224 640 R0
SYMATTR InstName VEE1
SYMATTR Value -5
SYMBOL voltage 224 16 R180
WINDOW 0 24 96 Left 2
WINDOW 3 24 16 Left 2
SYMATTR InstName VCC1
SYMATTR Value 5
SYMBOL Res 816 224 R0
SYMATTR InstName RL
SYMATTR Value 50
SYMBOL voltage 368 368 R0
WINDOW 123 24 118 Left 2
WINDOW 39 24 140 Left 2
SYMATTR InstName Vin1
SYMATTR Value 0
SYMATTR Value2 AC 1 0
SYMATTR SpiceLine Rser=50
TEXT 352 696 Left 2 !.ac dec 200 0.0001 1000000000k
TEXT 360 736 Left 2 !.model npn_ideal_transistor NPN(Bf=100)
