Version 4
SHEET 1 1876 832
WIRE 96 -176 -16 -176
WIRE -16 -128 -16 -176
WIRE 96 -112 96 -176
WIRE -192 16 -416 16
WIRE -16 16 -16 -48
WIRE -16 16 -192 16
WIRE 416 16 -16 16
WIRE 816 16 416 16
WIRE 1168 16 816 16
WIRE 1520 16 1168 16
WIRE 416 48 416 16
WIRE 816 48 816 16
WIRE 1168 48 1168 16
WIRE -192 80 -192 16
WIRE -16 80 -16 16
WIRE 1520 128 1520 16
WIRE -416 160 -416 16
WIRE -16 176 -16 160
WIRE 256 176 -16 176
WIRE 416 176 416 128
WIRE 672 176 416 176
WIRE 816 176 816 128
WIRE 1040 176 816 176
WIRE 1168 176 1168 128
WIRE 1456 176 1168 176
WIRE 1472 176 1456 176
WIRE -192 192 -192 160
WIRE -16 192 -16 176
WIRE -256 240 -288 240
WIRE 128 240 48 240
WIRE 1520 240 1520 224
WIRE 416 288 416 176
WIRE 816 288 816 176
WIRE 1168 288 1168 176
WIRE -416 336 -416 240
WIRE -336 336 -416 336
WIRE -192 336 -192 288
WIRE -112 336 -192 336
WIRE -16 336 -16 288
WIRE -16 336 -112 336
WIRE 128 336 128 240
WIRE 256 336 256 176
WIRE 352 336 256 336
WIRE 672 336 672 176
WIRE 752 336 672 336
WIRE 768 336 752 336
WIRE 1040 336 1040 176
WIRE 1104 336 1040 336
WIRE 1120 336 1104 336
WIRE -288 352 -288 240
WIRE 1520 352 1520 320
WIRE 1616 352 1520 352
WIRE 1760 352 1680 352
WIRE 1808 352 1760 352
WIRE -416 384 -416 336
WIRE -112 384 -112 336
WIRE 1760 384 1760 352
WIRE 416 400 416 384
WIRE 576 400 416 400
WIRE 816 400 816 384
WIRE 976 400 816 400
WIRE 1168 400 1168 384
WIRE 1328 400 1168 400
WIRE 1520 416 1520 352
WIRE -336 432 -336 336
WIRE -336 432 -352 432
WIRE -176 432 -336 432
WIRE 416 432 416 400
WIRE 576 432 576 400
WIRE 816 432 816 400
WIRE 976 432 976 400
WIRE 1168 432 1168 400
WIRE 1328 432 1328 400
WIRE 128 464 128 416
WIRE 1760 496 1760 464
WIRE -416 544 -416 480
WIRE -112 544 -112 480
WIRE -112 544 -416 544
WIRE -16 544 -112 544
WIRE 416 544 416 512
WIRE 416 544 -16 544
WIRE 576 544 576 496
WIRE 576 544 416 544
WIRE 816 544 816 512
WIRE 816 544 576 544
WIRE 976 544 976 496
WIRE 976 544 816 544
WIRE 1168 544 1168 512
WIRE 1168 544 976 544
WIRE 1328 544 1328 496
WIRE 1328 544 1168 544
WIRE 1520 544 1520 496
WIRE 1520 544 1328 544
WIRE -16 608 -16 544
WIRE -16 768 -16 688
FLAG -16 768 0
FLAG 96 -112 0
FLAG 128 464 0
FLAG -288 352 0
FLAG 1760 496 0
FLAG 1808 352 Vout
SYMBOL res -208 64 R0
SYMATTR InstName RC1
SYMATTR Value 100k
SYMBOL res -32 64 R0
SYMATTR InstName RC2
SYMATTR Value 100k
SYMBOL Res 400 416 R0
SYMATTR InstName Re1
SYMATTR Value 86k
SYMBOL Res -432 144 R0
SYMATTR InstName RR1
SYMATTR Value 93k
SYMBOL Res 400 32 R0
SYMATTR InstName RC3
SYMATTR Value 102.8k
SYMBOL npn -256 192 R0
SYMATTR InstName Q1
SYMBOL npn 352 288 R0
SYMATTR InstName Q2
SYMBOL npn -176 384 R0
SYMATTR InstName Q3
SYMBOL npn -352 384 M0
SYMATTR InstName Q4
SYMBOL npn 48 192 M0
SYMATTR InstName Q5
SYMBOL voltage -16 592 R0
SYMATTR InstName VEE1
SYMATTR Value -5
SYMBOL voltage -16 -32 R180
WINDOW 0 24 96 Left 2
WINDOW 3 24 16 Left 2
SYMATTR InstName VCC1
SYMATTR Value 5
SYMBOL voltage 128 320 R0
WINDOW 123 24 118 Left 2
WINDOW 39 24 140 Left 2
SYMATTR Value2 AC 0 0
SYMATTR SpiceLine Rser=50
SYMATTR InstName Vin1
SYMATTR Value 0
SYMBOL cap 560 432 R0
SYMATTR InstName Ce1
SYMATTR Value 5.9e-8
SYMBOL npn 1456 128 R0
SYMATTR InstName Q6
SYMBOL Res 1504 400 R0
SYMATTR InstName Re2
SYMATTR Value 206k
SYMBOL cap 1680 336 R90
WINDOW 0 0 32 VBottom 2
WINDOW 3 32 32 VTop 2
SYMATTR InstName C1
SYMATTR Value 8e-5
SYMBOL Res 800 416 R0
SYMATTR InstName Re3
SYMATTR Value 141.9k
SYMBOL Res 800 32 R0
SYMATTR InstName RC4
SYMATTR Value 169.62k
SYMBOL npn 752 288 R0
SYMATTR InstName Q7
SYMBOL cap 960 432 R0
SYMATTR InstName Ce2
SYMATTR Value 5.9e-5
SYMBOL Res 1504 224 R0
SYMATTR InstName Rq1
SYMATTR Value 206k
SYMBOL Res 1152 416 R0
SYMATTR InstName Re4
SYMATTR Value 15.609k
SYMBOL Res 1152 32 R0
SYMATTR InstName RC5
SYMATTR Value 18.6582k
SYMBOL npn 1104 288 R0
SYMATTR InstName Q8
SYMBOL cap 1312 432 R0
SYMATTR InstName Ce3
SYMATTR Value 5.9e-5
SYMBOL Voltage 1760 368 R0
WINDOW 123 24 118 Left 2
SYMATTR InstName V1
SYMATTR Value 0
SYMATTR Value2 AC 1 0
TEXT 112 648 Left 2 !.ac dec 200 0.0001 1000000000k
TEXT 120 688 Left 2 !.model npn_ideal_transistor NPN(Bf=100)
