Version 4
SHEET 1 1876 912
WIRE -336 -224 -448 -224
WIRE -448 -176 -448 -224
WIRE -336 -160 -336 -224
WIRE -624 -32 -848 -32
WIRE -448 -32 -448 -96
WIRE -448 -32 -624 -32
WIRE -16 -32 -448 -32
WIRE 384 -32 -16 -32
WIRE 608 -32 384 -32
WIRE 736 -32 608 -32
WIRE 960 -32 736 -32
WIRE 1088 -32 960 -32
WIRE -16 0 -16 -32
WIRE 384 0 384 -32
WIRE 736 0 736 -32
WIRE 608 16 608 -32
WIRE 960 16 960 -32
WIRE -624 32 -624 -32
WIRE -448 32 -448 -32
WIRE 1088 80 1088 -32
WIRE -848 112 -848 -32
WIRE -448 128 -448 112
WIRE -176 128 -448 128
WIRE -16 128 -16 80
WIRE 240 128 -16 128
WIRE 384 128 384 80
WIRE 608 128 608 80
WIRE 608 128 384 128
WIRE 736 128 736 80
WIRE 960 128 960 80
WIRE 960 128 736 128
WIRE 1024 128 960 128
WIRE 1040 128 1024 128
WIRE -624 144 -624 112
WIRE -448 144 -448 128
WIRE -688 192 -720 192
WIRE -304 192 -384 192
WIRE 1088 192 1088 176
WIRE -16 240 -16 128
WIRE 384 240 384 128
WIRE 736 240 736 128
WIRE -848 288 -848 192
WIRE -768 288 -848 288
WIRE -624 288 -624 240
WIRE -544 288 -624 288
WIRE -448 288 -448 240
WIRE -448 288 -544 288
WIRE -176 288 -176 128
WIRE -80 288 -176 288
WIRE 240 288 240 128
WIRE 320 288 240 288
WIRE 336 288 320 288
WIRE 608 288 608 128
WIRE 672 288 608 288
WIRE 688 288 672 288
WIRE 1088 304 1088 272
WIRE 1184 304 1088 304
WIRE 1328 304 1248 304
WIRE 1376 304 1328 304
WIRE -848 336 -848 288
WIRE -544 336 -544 288
WIRE -304 336 -304 192
WIRE 1328 336 1328 304
WIRE -720 352 -720 192
WIRE -16 352 -16 336
WIRE 144 352 -16 352
WIRE 384 352 384 336
WIRE 544 352 384 352
WIRE 736 352 736 336
WIRE 896 352 736 352
WIRE 1088 368 1088 304
WIRE -768 384 -768 288
WIRE -768 384 -784 384
WIRE -608 384 -768 384
WIRE -16 384 -16 352
WIRE 144 384 144 352
WIRE 384 384 384 352
WIRE 544 384 544 352
WIRE 736 384 736 352
WIRE 896 384 896 352
WIRE 1328 448 1328 416
WIRE -304 464 -304 416
WIRE -848 496 -848 432
WIRE -544 496 -544 432
WIRE -544 496 -848 496
WIRE -448 496 -544 496
WIRE -16 496 -16 464
WIRE -16 496 -448 496
WIRE 144 496 144 448
WIRE 144 496 -16 496
WIRE 384 496 384 464
WIRE 384 496 144 496
WIRE 544 496 544 448
WIRE 544 496 384 496
WIRE 736 496 736 464
WIRE 736 496 544 496
WIRE 896 496 896 448
WIRE 896 496 736 496
WIRE 1088 496 1088 448
WIRE 1088 496 896 496
WIRE -448 560 -448 496
WIRE -448 720 -448 640
FLAG -448 720 0
FLAG -336 -160 0
FLAG -304 464 0
FLAG 1328 448 0
FLAG 1376 304 Vout
FLAG -720 352 0
SYMBOL res -640 16 R0
SYMATTR InstName RC1
SYMATTR Value 100k
SYMBOL res -464 16 R0
SYMATTR InstName RC2
SYMATTR Value 100k
SYMBOL Res -32 368 R0
SYMATTR InstName Re1
SYMATTR Value 172k
SYMBOL Res -864 96 R0
SYMATTR InstName RR1
SYMATTR Value 93k
SYMBOL Res -32 -16 R0
SYMATTR InstName RC3
SYMATTR Value 205.6k
SYMBOL npn -688 144 R0
SYMATTR InstName Q1
SYMBOL npn -80 240 R0
SYMATTR InstName Q2
SYMBOL npn -608 336 R0
SYMATTR InstName QM1
SYMBOL npn -784 336 M0
SYMATTR InstName QM2
SYMBOL npn -384 144 M0
SYMATTR InstName Q3
SYMBOL voltage -448 544 R0
SYMATTR InstName VEE1
SYMATTR Value -5
SYMBOL voltage -448 -80 R180
WINDOW 0 24 96 Left 2
WINDOW 3 24 16 Left 2
SYMATTR InstName VCC1
SYMATTR Value 5
SYMBOL voltage -304 320 R0
WINDOW 123 24 118 Left 2
WINDOW 39 24 140 Left 2
SYMATTR Value2 AC 0 0
SYMATTR SpiceLine Rs=50
SYMATTR InstName Vx1
SYMATTR Value 0
SYMBOL cap 128 384 R0
SYMATTR InstName Ce1
SYMATTR Value 0.7e-8
SYMBOL npn 1024 80 R0
SYMATTR InstName Q4
SYMBOL Res 1072 352 R0
SYMATTR InstName Re2
SYMATTR Value 206k
SYMBOL cap 1248 288 R90
WINDOW 0 0 32 VBottom 2
WINDOW 3 32 32 VTop 2
SYMATTR InstName C1
SYMATTR Value 8e-5
SYMBOL Res 368 368 R0
SYMATTR InstName Re3
SYMATTR Value 141.9k
SYMBOL Res 368 -16 R0
SYMATTR InstName RC4
SYMATTR Value 169.62k
SYMBOL npn 320 240 R0
SYMATTR InstName Q5
SYMBOL cap 528 384 R0
SYMATTR InstName Ce2
SYMATTR Value 0.5e-6
SYMBOL Res 1072 176 R0
SYMATTR InstName Rq1
SYMATTR Value 203k
SYMBOL Res 720 368 R0
SYMATTR InstName Re4
SYMATTR Value 25.4232k
SYMBOL Res 720 -16 R0
SYMATTR InstName RC5
SYMATTR Value 30.396k
SYMBOL npn 672 240 R0
SYMATTR InstName Q6
SYMBOL cap 880 384 R0
SYMATTR InstName Ce3
SYMATTR Value 1e-5
SYMBOL cap 944 16 R0
SYMATTR InstName C2
SYMATTR Value 5.2e-12
SYMBOL cap 624 80 R180
WINDOW 0 24 56 Left 2
WINDOW 3 24 8 Left 2
SYMATTR InstName C3
SYMATTR Value 0.7e-11
SYMBOL Voltage 1328 320 R0
WINDOW 123 24 118 Left 2
SYMATTR InstName V1
SYMATTR Value 0
SYMATTR Value2 AC 1 0
TEXT 904 856 Left 2 !.ac dec 200 80 80000k
TEXT 912 896 Left 2 !.model npn_ideal_transistor NPN(Bf=100)
