Version 4
SHEET 1 1180 928
WIRE 464 -32 352 -32
WIRE 352 16 352 -32
WIRE 464 32 464 -32
WIRE 176 160 -48 160
WIRE 352 160 352 96
WIRE 352 160 176 160
WIRE 784 160 352 160
WIRE 784 192 784 160
WIRE 176 224 176 160
WIRE 352 224 352 160
WIRE -48 304 -48 160
WIRE 352 320 352 304
WIRE 560 320 352 320
WIRE 176 336 176 304
WIRE 352 336 352 320
WIRE 784 336 784 272
WIRE 944 336 784 336
WIRE 944 352 944 336
WIRE 112 384 80 384
WIRE 464 384 416 384
WIRE 464 416 464 384
WIRE 784 432 784 336
WIRE 944 464 944 432
WIRE -48 480 -48 384
WIRE 32 480 -48 480
WIRE 80 480 80 384
WIRE 176 480 176 432
WIRE 256 480 176 480
WIRE 352 480 352 432
WIRE 352 480 256 480
WIRE 560 480 560 320
WIRE 720 480 560 480
WIRE -48 528 -48 480
WIRE 256 528 256 480
WIRE 464 528 464 496
WIRE 32 576 32 480
WIRE 32 576 16 576
WIRE 192 576 32 576
WIRE 784 576 784 528
WIRE -48 688 -48 624
WIRE 256 688 256 624
WIRE 256 688 -48 688
WIRE 352 688 256 688
WIRE 784 688 784 656
WIRE 784 688 352 688
WIRE 352 752 352 688
WIRE 352 912 352 832
FLAG 80 480 0
FLAG 464 528 0
FLAG 352 912 0
FLAG 464 32 0
FLAG 944 464 0
SYMBOL res 160 208 R0
SYMATTR InstName RC1
SYMATTR Value 20k
SYMBOL res 336 208 R0
SYMATTR InstName RC2
SYMATTR Value 20k
SYMBOL Res 768 560 R0
SYMATTR InstName RE1
SYMATTR Value 4.3k
SYMBOL Res -64 288 R0
SYMATTR InstName RR1
SYMATTR Value 18.6k
SYMBOL Res 768 176 R0
SYMATTR InstName RC3
SYMATTR Value 5k
SYMBOL npn 112 336 R0
SYMATTR InstName Q1
SYMBOL npn 720 432 R0
SYMATTR InstName Q2
SYMBOL npn 192 528 R0
SYMATTR InstName Q3
SYMBOL npn 16 528 M0
SYMATTR InstName Q4
SYMBOL npn 416 336 M0
SYMATTR InstName Q5
SYMBOL voltage 464 400 R0
WINDOW 123 24 118 Left 2
SYMATTR InstName VSS1
SYMATTR Value SINE(0 1 1k)
SYMATTR Value2 AC 1 0
SYMBOL voltage 352 736 R0
SYMATTR InstName VEE1
SYMATTR Value -5
SYMBOL voltage 352 112 R180
WINDOW 0 24 96 Left 2
WINDOW 3 24 16 Left 2
SYMATTR InstName VCC1
SYMATTR Value 5
SYMBOL Res 928 336 R0
SYMATTR InstName R1
SYMATTR Value 2k
TEXT 720 808 Left 2 !.ac oct 0.5ms 8k 800k
TEXT 728 848 Left 2 !.model npn_ideal_transistor NPN(Bf=100)
